LTspice 24.1.9 for Windows
Circuit: C:\Users\joann\Desktop\Voice-recording-system-with-STM32\Draft2.net
Start Time: Wed Dec  3 23:09:27 2025
solver = Normal
Maximum thread count: 12
tnom = 27
temp = 27
method = trap
Direct Newton iteration for .op point succeeded.
Total elapsed time: 0.115 seconds.

Files loaded:
C:\Users\joann\Desktop\Voice-recording-system-with-STM32\Draft2.net

