LTspice 24.1.9 for Windows
Circuit: C:\Users\joann\Desktop\Voice-recording-system-with-STM32\Draft1.net
Start Time: Wed Dec  3 22:01:41 2025
solver = Normal
Maximum thread count: 12
tnom = 27
temp = 27
method = trap
Direct Newton iteration for .op point succeeded.
Total elapsed time: 0.212 seconds.

Files loaded:
C:\Users\joann\Desktop\Voice-recording-system-with-STM32\Draft1.net
C:\Users\joann\AppData\Local\LTspice\lib\sub\LM386.LIB

