LTspice 24.1.9 for Windows
Circuit: C:\Users\joann\Desktop\Voice-recording-system-with-STM32\microphone_ampilier.net
Start Time: Sat Dec 13 16:03:10 2025
solver = Normal
Maximum thread count: 12
tnom = 27
temp = 27
method = trap
Direct Newton iteration for .op point succeeded.
Total elapsed time: 0.122 seconds.

Files loaded:
C:\Users\joann\Desktop\Voice-recording-system-with-STM32\microphone_ampilier.net
C:\Users\joann\Desktop\Voice-recording-system-with-STM32\tlv9062.lib

