LTspice 24.1.9 for Windows
Circuit: C:\Users\joann\Desktop\Voice-recording-system-with-STM32\speaker_amplifier.net
Start Time: Thu Dec  4 00:50:26 2025
solver = Normal
Maximum thread count: 12
tnom = 27
temp = 27
method = trap
Direct Newton iteration for .op point succeeded.
Total elapsed time: 0.096 seconds.

Files loaded:
C:\Users\joann\Desktop\Voice-recording-system-with-STM32\speaker_amplifier.net
C:\Users\joann\AppData\Local\LTspice\lib\sub\LM386.LIB

